/*---------------------------------------------------------------------------*\
| =========                 |                                                 |
| \\      /  F ield         | OpenFOAM: The Open Source CFD Toolbox           |
|  \\    /   O peration     | Version:  1.4                                   |
|   \\  /    A nd           | Web:      http://www.openfoam.org               |
|    \\/     M anipulation  |                                                 |
\*---------------------------------------------------------------------------*/

FoamFile
{
    version         2.0;
    format          ascii;

    root            "";
    case            "";
    instance        "";
    local           "";

    class           dictionary;
    object          fvSchemes;
}

// * * * * * * * * * * * * * * * * * * * * * * * * * * * * * * * * * * * * * //

ddtSchemes
{
    default Euler;
}
offCentre 0.5;

gradSchemes
{
    default         none;
    grad(U)         leastSquares;
}

divSchemes
{
    default             none;
    div(flux,U)          Gauss linearUpwind grad(U);
}

laplacianSchemes
{
    default         Gauss linear uncorrected;
}

interpolationSchemes
{
    default        none;
    interpolate(h) linear;
    interpolate(convection(flux,U)) linear;
    interpolate(U) linear;
}

snGradSchemes
{
    default         uncorrected;
}

fluxRequired
{
    default         no;
    h;
}


// ************************************************************************* //
