FoamFile {
    version     2.0;
    format      ascii;
    class       dictionary;
    location    "constant";
    object      initialConditions;
}

decayRate decayRate [0 0 -1 0 0] 1; //1e-4;

